# CIF file generated by openbabel 3.0.0, see http://openbabel.sf.net
data_I
_chemical_name_common 'temp.pdb'
_cell_length_a 7.94
_cell_length_b 17.96
_cell_length_c 7.58
_cell_angle_alpha 90
_cell_angle_beta 95.5
_cell_angle_gamma 92
_space_group_name_Hall 'P211'
loop_
    _atom_site_label
    _atom_site_type_symbol
    _atom_site_fract_x
    _atom_site_fract_y
    _atom_site_fract_z
    _atom_site_occupancy
    C0      C    0.79080   0.49212   0.27740   1.000
    C1      C    0.87289   0.56335   0.25964   1.000
    C2      C    0.04492   0.56099   0.24639   1.000
    C3      C    0.10088   0.48735   0.25394   1.000
    S4      S    0.93246   0.42208   0.27687   1.000
    O5      O    0.77609   0.62322   0.24162   1.000
    H6      H    0.13519   0.60361   0.20928   1.000
    C7      C    0.61523   0.47595   0.27197   1.000
    C8      C    0.52460   0.40788   0.27621   1.000
    C9      C    0.35118   0.41416   0.26812   1.000
    C10     C    0.29206   0.48735   0.25394   1.000
    S11     S    0.47124   0.54942   0.25778   1.000
    O12     O    0.60876   0.34766   0.31888   1.000
    H13     H    0.26999   0.36468   0.26587   1.000
    C14     C    0.72720   0.66237   0.38794   1.000
    H15     H    0.59610   0.67311   0.34155   1.000
    H16     H    0.72996   0.62570   0.50338   1.000
    C17     C    0.80637   0.74087   0.42703   1.000
    H18     H    0.83304   0.75265   0.56792   1.000
    H19     H    0.70334   0.77606   0.37866   1.000
    O20     O    0.95075   0.76085   0.34009   1.000
    C21     C    0.09653   0.73162   0.43207   1.000
    H22     H    0.12564   0.75171   0.56766   1.000
    H23     H    0.07501   0.67197   0.44373   1.000
    C24     C    0.24324   0.74525   0.33611   1.000
    H25     H    0.19681   0.72996   0.20119   1.000
    H26     H    0.35729   0.71679   0.38343   1.000
    O27     O    0.27192   0.82472   0.31398   1.000
    C28     C    0.39412   0.85433   0.44851   1.000
    H29     H    0.39074   0.83719   0.58462   1.000
    H30     H    0.52182   0.84442   0.41285   1.000
    C31     C    0.36334   0.93621   0.43512   1.000
    H32     H    0.23753   0.94768   0.47077   1.000
    H33     H    0.39008   0.96356   0.31279   1.000
    O34     O    0.47826   0.97567   0.56408   1.000
    C35     C    0.44422   0.05222   0.56646   1.000
    H36     H    0.51837   0.08457   0.66905   1.000
    H37     H    0.46500   0.08096   0.44400   1.000
    H38     H    0.31610   0.06602   0.59416   1.000
    C39     C    0.62219   0.29509   0.18343   1.000
    H40     H    0.75487   0.29907   0.15586   1.000
    H41     H    0.55227   0.30745   0.05553   1.000
    C42     C    0.56996   0.21743   0.22465   1.000
    H43     H    0.56642   0.18878   0.09781   1.000
    H44     H    0.66973   0.18701   0.29927   1.000
    O45     O    0.40714   0.20506   0.30165   1.000
    C46     C    0.27429   0.21881   0.17309   1.000
    H47     H    0.27999   0.17410   0.07568   1.000
    H48     H    0.30096   0.27232   0.11411   1.000
    C49     C    0.11132   0.21603   0.25805   1.000
    H50     H    0.14245   0.22988   0.39774   1.000
    H51     H    0.03311   0.25957   0.19576   1.000
    O52     O    0.04802   0.14147   0.24718   1.000
    C53     C    0.91949   0.12179   0.12167   1.000
    H54     H    0.85224   0.16587   0.04930   1.000
    H55     H    0.82417   0.09538   0.19562   1.000
    C56     C    0.97797   0.07041   0.99032   1.000
    H57     H    0.88159   0.07627   0.87886   1.000
    H58     H    0.08258   0.09304   0.92207   1.000
    O59     O    0.01438   0.99911   0.03817   1.000
    C60     C    0.85725   0.95350   0.05606   1.000
    H61     H    0.87855   0.89459   0.07952   1.000
    H62     H    0.75796   0.96121   0.94977   1.000
    H63     H    0.81507   0.97084   0.18158   1.000
